test/resources/V1_14/phaseShifterCurrentLimiter.xml
<?xml version="1.0" encoding="UTF-8"?>
<iidm:network xmlns:iidm="http://www.powsybl.org/schema/iidm/1_14" id="phaseShifterTestCase" caseDate="2016-10-18T10:06:00+02:00" forecastDistance="0" sourceFormat="code" minimumValidationLevel="STEADY_STATE_HYPOTHESIS">
    <iidm:substation id="S1" country="FR">
        <iidm:voltageLevel id="VL1" nominalV="380" topologyKind="BUS_BREAKER">
            <iidm:busBreakerTopology>
                <iidm:bus id="B1" v="400" angle="0"/>
            </iidm:busBreakerTopology>
            <iidm:generator id="G1" energySource="OTHER" minP="50" maxP="150" voltageRegulatorOn="true" targetP="100" targetV="400" bus="B1" connectableBus="B1" p="-100.16797" q="-58.402831999999997">
                <iidm:minMaxReactiveLimits minQ="-1.7976931348623157e+308" maxQ="1.7976931348623157e+308"/>
            </iidm:generator>
        </iidm:voltageLevel>
        <iidm:voltageLevel id="VL3" nominalV="380" topologyKind="BUS_BREAKER">
            <iidm:busBreakerTopology>
                <iidm:bus id="B3" v="392.64429999999999" angle="-1.8060944999999999"/>
            </iidm:busBreakerTopology>
        </iidm:voltageLevel>
        <iidm:twoWindingsTransformer id="PS1" r="2" x="100" g="0" b="0" ratedU1="380" ratedU2="380" bus1="B1" connectableBus1="B1" voltageLevelId1="VL1" bus2="B3" connectableBus2="B3" voltageLevelId2="VL3" p1="50.084029999999998" q1="29.201415999999998" p2="-50.042014999999999" q2="-27.100708000000001">
            <iidm:phaseTapChanger lowTapPosition="0" tapPosition="1" targetDeadband="10" regulationMode="CURRENT_LIMITER" regulationValue="-20" loadTapChangingCapabilities="true">
                <iidm:terminalRef id="PS1" side="TWO"/>
                <iidm:step r="0" x="0" g="0" b="0" rho="1" alpha="-20"/>
                <iidm:step r="0" x="0" g="0" b="0" rho="1" alpha="0"/>
                <iidm:step r="0" x="0" g="0" b="0" rho="1" alpha="20"/>
            </iidm:phaseTapChanger>
        </iidm:twoWindingsTransformer>
    </iidm:substation>
    <iidm:substation id="S2" country="FR">
        <iidm:voltageLevel id="VL2" nominalV="380" topologyKind="BUS_BREAKER">
            <iidm:busBreakerTopology>
                <iidm:bus id="B2" v="385.6934" angle="-3.6792064"/>
            </iidm:busBreakerTopology>
            <iidm:load id="LD2" loadType="UNDEFINED" p0="100" q0="50" bus="B2" connectableBus="B2" p="100" q="50"/>
        </iidm:voltageLevel>
    </iidm:substation>
    <iidm:line id="L1" r="4" x="200" g1="0" b1="0" g2="0" b2="0" bus1="B1" connectableBus1="B1" voltageLevelId1="VL1" bus2="B2" connectableBus2="B2" voltageLevelId2="VL2" p1="50.084026000000001" q1="29.201415999999998" p2="-50" q2="-25"/>
    <iidm:line id="L2" r="2" x="100" g1="0" b1="0" g2="0" b2="0" bus1="B3" connectableBus1="B3" voltageLevelId1="VL3" bus2="B2" connectableBus2="B2" voltageLevelId2="VL2" p1="50.042014999999999" q1="27.100708000000001" p2="-50" q2="-25"/>
</iidm:network>
